data_image0
_cell_length_a       5.8
_cell_length_b       2.9
_cell_length_c       2.9
_cell_angle_alpha    90
_cell_angle_beta     90
_cell_angle_gamma    90

loop_
  _atom_site_label
  _atom_site_occupancy
  _atom_site_fract_x
  _atom_site_fract_y
  _atom_site_fract_z
  _atom_site_thermal_displace_type
  _atom_site_B_iso_or_equiv
  _atom_site_type_symbol
  Fe1      1.0000 0.00708  -0.04018  -0.05610  Biso   1.000  Fe
  Fe2      1.0000 0.20530  0.42484  0.45007  Biso   1.000  Fe
  Fe3      1.0000 0.47257  -0.07830  -0.06893  Biso   1.000  Fe
  Fe4      1.0000 0.79694  0.48928  0.41943  Biso   1.000  Fe
