data_image0
_cell_length_a       3.59
_cell_length_b       3.59
_cell_length_c       3.59
_cell_angle_alpha    90
_cell_angle_beta     90
_cell_angle_gamma    90

loop_
  _atom_site_label
  _atom_site_occupancy
  _atom_site_fract_x
  _atom_site_fract_y
  _atom_site_fract_z
  _atom_site_thermal_displace_type
  _atom_site_B_iso_or_equiv
  _atom_site_type_symbol
  Fe1      1.0000 -0.04482  -0.01712  -0.00667  Biso   1.000  Fe
  Fe2      1.0000 0.53709  0.43329  0.01424  Biso   1.000  Fe
  Fe3      1.0000 -0.05696  0.48085  0.47255  Biso   1.000  Fe
  Fe4      1.0000 0.52456  0.07051  0.53737  Biso   1.000  Fe
