data_image0
_cell_length_a       5.8
_cell_length_b       2.9
_cell_length_c       2.9
_cell_angle_alpha    90
_cell_angle_beta     90
_cell_angle_gamma    90

loop_
  _atom_site_label
  _atom_site_occupancy
  _atom_site_fract_x
  _atom_site_fract_y
  _atom_site_fract_z
  _atom_site_thermal_displace_type
  _atom_site_B_iso_or_equiv
  _atom_site_type_symbol
  Fe1      1.0000 0.04109  0.07652  -0.08908  Biso   1.000  Fe
  Fe2      1.0000 0.29466  0.44853  0.55729  Biso   1.000  Fe
  Fe3      1.0000 0.50638  -0.00061  0.09268  Biso   1.000  Fe
  Fe4      1.0000 0.78382  0.59821  0.58173  Biso   1.000  Fe
